LAMMPS (7 Feb 2024 - Update 1)
# Simple mW water simulation
# initialisation from fcc and hard-coded variables
# Francesco Turci
# f.turci@bristol.ac.uk
# February 2025

units real
dimension 3
boundary p p p
atom_style atomic

lattice fcc 5.0
Lattice spacing in x,y,z = 5 5 5
region box block 0 5 0 5 0 5
create_box 1 box  # Define 1 atom type
Created orthogonal box = (0 0 0) to (25 25 25)
create_atoms 1 random 100 12345 box  # Create 100 atoms randomly
Created 100 atoms

# mW water model. It is stored in an additional file mW.sw where the various parameters are specified
# it is a Stillinger-Weber potential
pair_style sw
pair_coeff * * mW.sw mW
Reading sw potential file mW.sw with DATE: 2007-06-11

mass 1 18.015  # Approximate mass of water molecule in g/mol

velocity all create 300.0 12345 mom yes rot yes dist gaussian

timestep 0.5
fix 1 all nvt temp 300.0 300.0 0.5

thermo 100
thermo_style custom step temp pe ke etotal press vol

run 10000
Step          Temp          PotEng         KinEng         TotEng         Press          Volume
0   300            1395.6509      88.530058      1484.181       11420.711      15625
Averages over the last 51 of 101 rows, steps 5000 to 10000:
Temp PotEng KinEng TotEng Press Volume
307.337 -654.757 90.6951 -564.062 -15.5815 15625
Loop time of 0.685781 on 10 procs for 10000 steps with 100 atoms
